1     2812 0 0 SDQH Fazenda da Ilha
100   20.12   3   0 0.00 0 0 0 10  -24.65056306 -050.36641702    0.00    0.00 0  0 0 0 28  -24.64943694 -050.35858298    0.00    0.00 0  0 0 0
130 Airport Boundary
111 -24.64844431 -050.35707833 
111 -24.65003443 -050.36814035 
111 -24.65155569 -050.36792167 
113 -24.64996557 -050.35685965 
19  -24.65034097 -050.36245099 0 Windsock
1     2700 0 0 SJTI Fazenda Iapo
100   20.12   3   0 0.00 0 0 0 08  -24.52916520 -050.36842085    0.00    0.00 0  0 0 0 26  -24.52639036 -050.36324580    0.00    0.00 0  0 0 0
130 Airport Boundary
111 -24.52495763 -050.36218375 
111 -24.52925695 -050.37020193 
111 -24.53059792 -050.36948291 
113 -24.52629860 -050.36146473 
19  -24.52807808 -050.36567231 0 Windsock
1     2953 0 0 SIEZ Pedra Branca
100   20.12   3   0 0.00 0 0 0 18  -24.61975678 -050.46060975    0.00    0.00 0  0 0 0 36  -24.62857657 -050.45772359    0.00    0.00 0  0 0 0
130 Airport Boundary
111 -24.62980559 -050.45656285 
111 -24.61807932 -050.46040011 
111 -24.61852776 -050.46177050 
113 -24.63025403 -050.45793323 
19  -24.62426702 -050.45947334 0 Windsock
1     2610 1 1 SBTL TELEMACO BORBA
100   29.87   1   0 0.25 0 1 0 02  -24.32589400 -050.65191700    0.00    0.00 2  0 0 0 20  -24.30965300 -050.65126700    0.00    0.00 2  0 0 0
110   1 0.30   2.09 Default taxiway for RWY 02
111 -24.32589882 -050.65177206   3 102 
111 -24.32592339 -050.65103258   3 102 
111 -24.30968239 -050.65038261   3 102 
111 -24.30965782 -050.65112200 
112 -24.30992646 -050.65113275 -24.30979222 -050.65112491   3 102 
111 -24.30979810 -050.65094804   3 102 
112 -24.30980594 -050.65071223 -24.30981182 -050.65053537   3 102 
111 -24.30994614 -050.65054074   3 102 
111 -24.31773084 -050.65085230   3 102 
111 -24.31771116 -050.65144434 
111 -24.31784548 -050.65144972   3 102 
111 -24.31786516 -050.65085768   3 102 
112 -24.32564987 -050.65116923 -24.32578418 -050.65117460   3 102 
111 -24.32577830 -050.65135149   3 102 
112 -24.32577046 -050.65158733 -24.32576458 -050.65176422   3 102 
113 -24.32563019 -050.65176131 
120 Default hold RWY 02 (near)
111 -24.32590870 -050.65147479   4 
115 -24.32577438 -050.65146941 
120 Default hold RWY 02 (centre)
111 -24.31785536 -050.65115247   4 
115 -24.31772104 -050.65114709 
120 Default hold RWY 02 (far)
111 -24.30980202 -050.65083014   4 
115 -24.30966770 -050.65082477 
18  -24.31774040 -050.65262377 1 BCN
19  -24.32614793 -050.65236996 1 WS
19  -24.30939907 -050.65081410 1 WS
54 13160 RDO